/*--------------------------------*- C++ -*----------------------------------*\
| =========                 |                                                 |
| \\      /  F ield         | OpenFOAM: The Open Source CFD Toolbox           |
|  \\    /   O peration     | Version:  4.x                                   |
|   \\  /    A nd           | Web:      www.OpenFOAM.org                      |
|    \\/     M anipulation  |                                                 |
\*---------------------------------------------------------------------------*/
FoamFile
{
    version     2.0;
    format      ascii;
    class       volScalarField;
    location    "0";
    object      k;
}
// * * * * * * * * * * * * * * * * * * * * * * * * * * * * * * * * * * * * * //

dimensions      [0 2 -2 0 0 0 0];

internalField   uniform 0.375;

boundaryField
{
    inlet
  
    {
        type            fixedValue;
        value           $internalField;
    }
 



    outlet
    {
        type            zeroGradient;
    }



    upperWall
    {
        type            kqRWallFunction;
        value           $internalField;
    }

    lowerWall
    {
        type            kqRWallFunction;
        value           $internalField;
    }

    wall
    {
        type            kqRWallFunction;
        value           $internalField;
    }

    rot_wall
    {
        type            kqRWallFunction;
        value           $internalField;
    }

    back
    {
        type            kqRWallFunction;
        value           $internalField;
    }

    front
    {
        type            kqRWallFunction;
        value           $internalField;
    }

    left
    {
        type            kqRWallFunction;
        value           $internalField;
    }
}

// ************************************************************************* //
