/*--------------------------------*- C++ -*----------------------------------*\
| =========                 |                                                 |
| \\      /  F ield         | OpenFOAM: The Open Source CFD Toolbox           |
|  \\    /   O peration     | Version:  2006                                  |
|   \\  /    A nd           | Website:  www.openfoam.com                      |
|    \\/     M anipulation  |                                                 |
\*---------------------------------------------------------------------------*/
FoamFile
{
    version     2.0;
    format      ascii;
    class       extendedFeatureEdgeMesh;
    location    "constant/extendedFeatureEdgeMesh";
    object      wall.extendedFeatureEdgeMesh;
}
// * * * * * * * * * * * * * * * * * * * * * * * * * * * * * * * * * * * * * //

// points

15726
(
(0.1945 -0.422 0.05)
(0.1939968 -0.4320195 0.2874968)
(0.1925116 -0.4418427 0.2860116)
(0.1901118 -0.4512982 0.2836118)
(0.1868934 -0.4602551 0.2803934)
(0.1829643 -0.4686269 0.2764643)
(0.1784311 -0.4763651 0.2719311)
(-0.1901118 -0.4512982 0.2836118)
(-0.1925116 -0.4418427 0.2860116)
(-0.1901118 -0.4512982 0.05438819)
(-0.1925116 -0.4418427 0.05198844)
(0.1939968 -0.4320195 0.05050322)
(0.1925116 -0.4418427 0.05198844)
(0.1901118 -0.4512982 0.05438819)
(0.1868934 -0.4602551 0.05760657)
(0.1829643 -0.4686269 0.0615357)
(0.1945 0.3299451 0.2837354)
(0.1945 0.3207997 0.288)
(0.1945 0.3229699 0.2764713)
(0.1945 0.3390906 0.2794708)
(0.1945 0.3319408 0.2731773)
(0.1945 0.3482361 0.2752062)
(0.1945 0.3408411 0.2692582)
(0.1945 0.3573815 0.2709416)
(0.1945 0.3496794 0.2650988)
(0.1945 0.366527 0.266677)
(0.1945 0.3585866 0.2608802)
(0.1945 0.3756725 0.2624124)
(0.1945 0.3675843 0.2566482)
(0.1945 0.384818 0.2581478)
(0.1945 0.3766548 0.252407)
(0.1945 0.3939634 0.2538832)
(0.1945 0.3857666 0.2481563)
(0.1945 0.4031089 0.2496186)
(0.1945 0.3948978 0.2438987)
(0.1945 0.4122544 0.245354)
(0.1945 0.404036 0.2396366)
(0.1945 0.4213998 0.2410894)
(0.1945 0.4131758 0.2353719)
(0.1945 0.4305453 0.2368248)
(0.1945 0.4223156 0.2311058)
(0.1945 0.4396908 0.2325602)
(0.1945 0.4314548 0.2268391)
(0.1945 0.4488362 0.2282956)
(0.1945 0.4405926 0.2225724)
(0.1945 0.4579817 0.224031)
(0.1945 0.4497276 0.2183054)
(0.1945 0.4671272 0.2197664)
(0.1945 0.4588576 0.2140369)
(0.1945 0.4762727 0.2155018)
(0.1945 0.4679784 0.2097649)
(0.1945 0.4854181 0.2112372)
(0.1945 0.4770847 0.2054873)
(0.1945 0.4945636 0.2069726)
(0.1945 0.4861696 0.2012025)
(0.1945 0.5037091 0.202708)
(0.1945 0.4952248 0.1969088)
(0.1945 0.5128545 0.1984433)
(0.1945 0.504239 0.1926039)
(0.1945 0.522 0.1941787)
(0.1945 0.5131843 0.188278)
(0.1945 0.522 0.1838803)
(0.1945 -0.4119622 0.288)
(0.1945 -0.422 0.288)
(0.1945 -0.422 0.2780833)
(0.1945 -0.4019243 0.288)
(0.1945 -0.4054379 0.2796004)
(0.1945 -0.3918865 0.288)
(0.1945 -0.3964723 0.279102)
(0.1945 -0.3818487 0.288)
(0.1945 -0.3865567 0.2793202)
(0.1945 -0.3718108 0.288)
(0.1945 -0.3765389 0.2793524)
(0.1945 -0.361773 0.288)
(0.1945 -0.3665839 0.2792631)
(0.1945 -0.3517352 0.288)
(0.1945 -0.3566362 0.2792117)
(0.1945 -0.3416973 0.288)
(0.1945 -0.3466628 0.2792165)
(0.1945 -0.3316595 0.288)
(0.1945 -0.3366602 0.2792493)
(0.1945 -0.3216217 0.288)
(0.1945 -0.3266366 0.2792847)
(0.1945 -0.3115838 0.288)
(0.1945 -0.316602 0.2793103)
(0.1945 -0.301546 0.288)
(0.1945 -0.306564 0.2793245)
(0.1945 -0.2915082 0.288)
(0.1945 -0.2965262 0.2793309)
(0.1945 -0.2814703 0.288)
(0.1945 -0.286489 0.2793336)
(0.1945 -0.2714325 0.288)
(0.1945 -0.2764517 0.2793351)
(0.1945 -0.2613947 0.288)
(0.1945 -0.2664141 0.2793361)
(0.1945 -0.2513568 0.288)
(0.1945 -0.2563762 0.2793366)
(0.1945 -0.241319 0.288)
(0.1945 -0.2463382 0.2793366)
(0.1945 -0.2312812 0.288)
(0.1945 -0.2363004 0.2793363)
(0.1945 -0.2212433 0.288)
(0.1945 -0.2262627 0.2793359)
(0.1945 -0.2112055 0.288)
(0.1945 -0.2162251 0.2793355)
(0.1945 -0.2011677 0.288)
(0.1945 -0.2061874 0.2793353)
(0.1945 -0.1911298 0.288)
(0.1945 -0.1961496 0.2793352)
(0.1945 -0.181092 0.288)
(0.1945 -0.1861118 0.2793351)
(0.1945 -0.1710542 0.288)
(0.1945 -0.176074 0.2793351)
(0.1945 -0.1610163 0.288)
(0.1945 -0.1660362 0.2793351)
(0.1945 -0.1509785 0.288)
(0.1945 -0.1559983 0.2793351)
(0.1945 -0.1409407 0.288)
(0.1945 -0.1459605 0.2793351)
(0.1945 -0.1309028 0.288)
(0.1945 -0.1359227 0.2793351)
(0.1945 -0.120865 0.288)
(0.1945 -0.1258849 0.2793352)
(0.1945 -0.1108272 0.288)
(0.1945 -0.115847 0.2793352)
(0.1945 -0.1007893 0.288)
(0.1945 -0.1058092 0.2793353)
(0.1945 -0.0907515 0.288)
(0.1945 -0.09577132 0.2793353)
(0.1945 -0.08071366 0.288)
(0.1945 -0.08573347 0.2793354)
(0.1945 -0.07067583 0.288)
(0.1945 -0.07569562 0.2793354)
(0.1945 -0.060638 0.288)
(0.1945 -0.06565777 0.2793354)
(0.1945 -0.05060016 0.288)
(0.1945 -0.05561993 0.2793354)
(0.1945 -0.04056233 0.288)
(0.1945 -0.04558208 0.2793354)
(0.1945 -0.0305245 0.288)
(0.1945 -0.03554425 0.2793353)
(0.1945 -0.02048666 0.288)
(0.1945 -0.02550642 0.2793353)
(0.1945 -0.01044883 0.288)
(0.1945 -0.01546859 0.2793352)
(0.1945 -0.0004109974 0.288)
(0.1945 -0.00543077 0.2793352)
(0.1945 0.009626836 0.288)
(0.1945 0.00460705 0.2793351)
(0.1945 0.01966467 0.288)
(0.1945 0.01464487 0.2793351)
(0.1945 0.0297025 0.288)
(0.1945 0.0246827 0.2793351)
(0.1945 0.03974034 0.288)
(0.1945 0.03472054 0.2793351)
(0.1945 0.04977817 0.288)
(0.1945 0.04475837 0.2793351)
(0.1945 0.059816 0.288)
(0.1945 0.0547962 0.2793351)
(0.1945 0.06985384 0.288)
(0.1945 0.06483402 0.2793351)
(0.1945 0.07989167 0.288)
(0.1945 0.07487184 0.2793351)
(0.1945 0.0899295 0.288)
(0.1945 0.08490966 0.2793351)
(0.1945 0.09996734 0.288)
(0.1945 0.09494749 0.2793352)
(0.1945 0.1100052 0.288)
(0.1945 0.1049853 0.2793353)
(0.1945 0.120043 0.288)
(0.1945 0.1150232 0.2793353)
(0.1945 0.1300808 0.288)
(0.1945 0.125061 0.2793354)
(0.1945 0.1401187 0.288)
(0.1945 0.1350988 0.2793354)
(0.1945 0.1501565 0.288)
(0.1945 0.1451365 0.2793355)
(0.1945 0.1601943 0.288)
(0.1945 0.1551742 0.2793356)
(0.1945 0.1702322 0.288)
(0.1945 0.1652116 0.2793357)
(0.1945 0.18027 0.288)
(0.1945 0.1752485 0.279336)
(0.1945 0.1903078 0.288)
(0.1945 0.1852848 0.2793365)
(0.1945 0.2003457 0.288)
(0.1945 0.1953198 0.2793374)
(0.1945 0.2103835 0.288)
(0.1945 0.2053526 0.2793389)
(0.1945 0.2204213 0.288)
(0.1945 0.2153818 0.2793413)
(0.1945 0.2304592 0.288)
(0.1945 0.2254054 0.2793445)
(0.1945 0.240497 0.288)
(0.1945 0.2354198 0.2793478)
(0.1945 0.2505348 0.288)
(0.1945 0.2454198 0.2793496)
(0.1945 0.2605727 0.288)
(0.1945 0.255397 0.2793467)
(0.1945 0.2706105 0.288)
(0.1945 0.2653389 0.2793343)
(0.1945 0.2806483 0.288)
(0.1945 0.2752278 0.2793059)
(0.1945 0.2906862 0.288)
(0.1945 0.2850418 0.2792525)
(0.1945 0.300724 0.288)
(0.1945 0.2947604 0.279153)
(0.1945 0.3107618 0.288)
(0.1945 0.3043715 0.2789338)
(0.1945 0.3138502 0.2783338)
(0.1945 -0.422 0.2681667)
(0.1945 -0.4131254 0.2742666)
(0.1945 -0.422 0.25825)
(0.1945 -0.422 0.2483333)
(0.1945 -0.4132683 0.2533446)
(0.1945 -0.422 0.2384167)
(0.1945 -0.422 0.2285)
(0.1945 -0.413431 0.2333642)
(0.1945 -0.422 0.2185833)
(0.1945 -0.422 0.2086667)
(0.1945 -0.4133108 0.213629)
(0.1945 -0.422 0.19875)
(0.1945 -0.422 0.1888333)
(0.1945 -0.413285 0.1938331)
(0.1945 -0.422 0.1789167)
(0.1945 -0.422 0.169)
(0.1945 -0.4133056 0.1739769)
(0.1945 -0.422 0.1590833)
(0.1945 -0.422 0.1491667)
(0.1945 -0.4133042 0.1541088)
(0.1945 -0.422 0.13925)
(0.1945 -0.422 0.1293333)
(0.1945 -0.4132813 0.1342196)
(0.1945 -0.422 0.1194167)
(0.1945 -0.422 0.1095)
(0.1945 -0.4132897 0.1143288)
(0.1945 -0.422 0.09958333)
(0.1945 -0.422 0.08966667)
(0.1945 -0.4136903 0.094638)
(0.1945 -0.422 0.07975)
(0.1945 -0.422 0.06983333)
(0.1945 -0.4133946 0.07507689)
(0.1945 -0.422 0.05991667)
(0.1945 -0.4119574 0.05)
(0.1945 -0.4019149 0.05)
(0.1945 -0.4081639 0.05878101)
(0.1945 -0.3918723 0.05)
(0.1945 -0.3818298 0.05)
(0.1945 -0.3870296 0.05896569)
(0.1945 -0.3717872 0.05)
(0.1945 -0.3617447 0.05)
(0.1945 -0.3667469 0.05872166)
(0.1945 -0.3517021 0.05)
(0.1945 -0.3416596 0.05)
(0.1945 -0.3466677 0.0586727)
(0.1945 -0.331617 0.05)
(0.1945 -0.3215745 0.05)
(0.1945 -0.3265999 0.05867227)
(0.1945 -0.3115319 0.05)
(0.1945 -0.3014894 0.05)
(0.1945 -0.3065143 0.05866696)
(0.1945 -0.2914468 0.05)
(0.1945 -0.2814043 0.05)
(0.1945 -0.2864257 0.05866457)
(0.1945 -0.2713617 0.05)
(0.1945 -0.2613191 0.05)
(0.1945 -0.2663394 0.05866568)
(0.1945 -0.2512766 0.05)
(0.1945 -0.241234 0.05)
(0.1945 -0.2462546 0.05866618)
(0.1945 -0.2311915 0.05)
(0.1945 -0.2211489 0.05)
(0.1945 -0.2261696 0.05866642)
(0.1945 -0.2111064 0.05)
(0.1945 -0.2010638 0.05)
(0.1945 -0.2060843 0.05866598)
(0.1945 -0.1910213 0.05)
(0.1945 -0.1809787 0.05)
(0.1945 -0.1859991 0.0586657)
(0.1945 -0.1709362 0.05)
(0.1945 -0.1608936 0.05)
(0.1945 -0.165914 0.05866544)
(0.1945 -0.1508511 0.05)
(0.1945 -0.1408085 0.05)
(0.1945 -0.1458288 0.05866572)
(0.1945 -0.130766 0.05)
(0.1945 -0.1207234 0.05)
(0.1945 -0.1257438 0.05866552)
(0.1945 -0.1106809 0.05)
(0.1945 -0.1006383 0.05)
(0.1945 -0.1056586 0.05866563)
(0.1945 -0.09059574 0.05)
(0.1945 -0.08055319 0.05)
(0.1945 -0.08557339 0.05866607)
(0.1945 -0.07051064 0.05)
(0.1945 -0.06046809 0.05)
(0.1945 -0.06548852 0.0586657)
(0.1945 -0.05042553 0.05)
(0.1945 -0.04038298 0.05)
(0.1945 -0.04540327 0.05866599)
(0.1945 -0.03034043 0.05)
(0.1945 -0.02029787 0.05)
(0.1945 -0.02531837 0.05866554)
(0.1945 -0.01025532 0.05)
(0.1945 -0.000212766 0.05)
(0.1945 -0.005233261 0.05866545)
(0.1945 0.009829787 0.05)
(0.1945 0.01987234 0.05)
(0.1945 0.01485185 0.05866527)
(0.1945 0.02991489 0.05)
(0.1945 0.03995745 0.05)
(0.1945 0.03493688 0.05866512)
(0.1945 0.05 0.05)
(0.1945 0.06004255 0.05)
(0.1945 0.05502197 0.05866517)
(0.1945 0.07008511 0.05)
(0.1945 0.08012766 0.05)
(0.1945 0.07510708 0.05866516)
(0.1945 0.09017021 0.05)
(0.1945 0.1002128 0.05)
(0.1945 0.09519226 0.05866531)
(0.1945 0.1102553 0.05)
(0.1945 0.1202979 0.05)
(0.1945 0.1152775 0.05866533)
(0.1945 0.1303404 0.05)
(0.1945 0.140383 0.05)
(0.1945 0.1353626 0.05866561)
(0.1945 0.1504255 0.05)
(0.1945 0.1604681 0.05)
(0.1945 0.1554476 0.05866556)
(0.1945 0.1705106 0.05)
(0.1945 0.1805532 0.05)
(0.1945 0.1755325 0.05866529)
(0.1945 0.1905957 0.05)
(0.1945 0.2006383 0.05)
(0.1945 0.1956173 0.05866465)
(0.1945 0.2106809 0.05)
(0.1945 0.2207234 0.05)
(0.1945 0.2157022 0.05866361)
(0.1945 0.230766 0.05)
(0.1945 0.2408085 0.05)
(0.1945 0.2357874 0.058663)
(0.1945 0.2508511 0.05)
(0.1945 0.2608936 0.05)
(0.1945 0.2558728 0.05866366)
(0.1945 0.2709362 0.05)
(0.1945 0.2809787 0.05)
(0.1945 0.2759578 0.05866506)
(0.1945 0.2910213 0.05)
(0.1945 0.3010638 0.05)
(0.1945 0.2960422 0.05866566)
(0.1945 0.3111064 0.05)
(0.1945 0.3211489 0.05)
(0.1945 0.3161265 0.05866461)
(0.1945 0.3311915 0.05)
(0.1945 0.341234 0.05)
(0.1945 0.3362112 0.05866258)
(0.1945 0.3512766 0.05)
(0.1945 0.3613191 0.05)
(0.1945 0.3562976 0.05866207)
(0.1945 0.3713617 0.05)
(0.1945 0.3814043 0.05)
(0.1945 0.3763857 0.05866713)
(0.1945 0.3914468 0.05)
(0.1945 0.4014894 0.05)
(0.1945 0.3964733 0.05867845)
(0.1945 0.4115319 0.05)
(0.1945 0.4215745 0.05)
(0.1945 0.4165569 0.05869437)
(0.1945 0.431617 0.05)
(0.1945 0.4416596 0.05)
(0.1945 0.4366216 0.05871758)
(0.1945 0.4517021 0.05)
(0.1945 0.4617447 0.05)
(0.1945 0.4566461 0.05873001)
(0.1945 0.4717872 0.05)
(0.1945 0.4818298 0.05)
(0.1945 0.4766571 0.05876962)
(0.1945 0.4918723 0.05)
(0.1945 0.5019149 0.05)
(0.1945 0.4965791 0.05907928)
(0.1945 0.5119574 0.05)
(0.1945 0.522 0.05)
(0.1945 0.522 0.06029848)
(0.1945 0.522 0.1735818)
(0.1945 0.513344 0.178035)
(0.1945 0.522 0.1632833)
(0.1945 0.5134363 0.1677591)
(0.1945 0.522 0.1529848)
(0.1945 0.5134911 0.1574683)
(0.1945 0.522 0.1426863)
(0.1945 0.5135278 0.1471753)
(0.1945 0.522 0.1323879)
(0.1945 0.5135649 0.1368912)
(0.1945 0.522 0.1220894)
(0.1945 0.513617 0.1266226)
(0.1945 0.522 0.1117909)
(0.1945 0.513678 0.1163621)
(0.1945 0.522 0.1014924)
(0.1945 0.5136853 0.1060818)
(0.1945 0.522 0.09119393)
(0.1945 0.5137219 0.09584348)
(0.1945 0.522 0.08089545)
(0.1945 0.5136556 0.08548624)
(0.1945 0.522 0.07059696)
(0.1945 0.513176 0.07485184)
(0.1945 0.5132335 0.0641015)
(0.1945 -0.4133684 0.2234955)
(0.1945 -0.4134418 0.2432748)
(0.1945 -0.4128338 0.2637038)
(0.1945 -0.4132837 0.2037444)
(0.1945 -0.4132963 0.1839079)
(0.1945 -0.4133069 0.1640438)
(0.1945 -0.4132969 0.1441711)
(0.1945 -0.4132726 0.1242683)
(0.1945 -0.4134134 0.1044414)
(0.1945 -0.4137465 0.08477744)
(0.1945 -0.4136622 0.0663219)
(0.1945 -0.397503 0.05923981)
(0.1945 -0.3768314 0.05881037)
(0.1945 -0.3567006 0.05868232)
(0.1945 -0.3366359 0.05867384)
(0.1945 -0.3165583 0.05866943)
(0.1945 -0.2964698 0.05866499)
(0.1945 -0.2763823 0.05866466)
(0.1945 -0.256297 0.05866593)
(0.1945 -0.2362122 0.05866603)
(0.1945 -0.2161271 0.05866576)
(0.1945 -0.1960419 0.05866546)
(0.1945 -0.1759567 0.05866526)
(0.1945 -0.1558715 0.05866517)
(0.1945 -0.1357864 0.05866535)
(0.1945 -0.1157013 0.05866524)
(0.1945 -0.09561616 0.05866539)
(0.1945 -0.0755311 0.05866565)
(0.1945 -0.05544601 0.05866537)
(0.1945 -0.03536099 0.05866551)
(0.1945 -0.01527584 0.05866525)
(0.1945 0.004809381 0.05866554)
(0.1945 0.02489452 0.05866562)
(0.1945 0.04497962 0.05866555)
(0.1945 0.06506471 0.05866555)
(0.1945 0.08514985 0.05866558)
(0.1945 0.1052349 0.05866551)
(0.1945 0.1253201 0.05866582)
(0.1945 0.1454052 0.05866595)
(0.1945 0.1654901 0.05866579)
(0.1945 0.185575 0.05866533)
(0.1945 0.2056597 0.05866441)
(0.1945 0.2257447 0.05866339)
(0.1945 0.2458302 0.05866337)
(0.1945 0.2659154 0.05866464)
(0.1945 0.286 0.05866587)
(0.1945 0.3060842 0.0586657)
(0.1945 0.3261685 0.05866394)
(0.1945 0.346254 0.05866206)
(0.1945 0.3663416 0.05866402)
(0.1945 0.3864299 0.05867264)
(0.1945 0.4065162 0.05868693)
(0.1945 0.4265932 0.05870809)
(0.1945 0.4466381 0.05872939)
(0.1945 0.4666462 0.05874265)
(0.1945 0.4866815 0.0588803)
(0.1945 0.5055327 0.05853956)
(0.1945 -0.4047949 0.2283771)
(0.1945 0.3336967 0.2631776)
(0.1945 0.342145 0.2591743)
(0.1945 0.350754 0.2550098)
(0.1945 0.3595499 0.2508335)
(0.1945 0.3685211 0.2466356)
(0.1945 0.3775856 0.2424126)
(0.1945 0.386697 0.2381707)
(0.1945 0.3958252 0.2339161)
(0.1945 0.4049582 0.2296542)
(0.1945 0.414092 0.2253877)
(0.1945 0.4232253 0.221119)
(0.1945 0.4323568 0.2168498)
(0.1945 0.4414843 0.2125808)
(0.1945 0.4506042 0.2083105)
(0.1945 0.45971 0.204035)
(0.1945 0.4687916 0.1997499)
(0.1945 0.4778365 0.1954508)
(0.1945 0.4868307 0.1911346)
(0.1945 0.49576 0.1867982)
(0.1945 0.5045946 0.1824348)
(0.1945 -0.4027236 0.2695024)
(0.1945 0.5030219 0.06879876)
(0.1945 -0.3913826 0.2705956)
(0.1945 -0.381181 0.2708378)
(0.1945 -0.3713273 0.2705734)
(0.1945 -0.3614912 0.2703944)
(0.1945 -0.3515936 0.2703746)
(0.1945 -0.3416362 0.2704429)
(0.1945 -0.3316361 0.2705305)
(0.1945 -0.3216109 0.2705995)
(0.1945 -0.3115762 0.2706395)
(0.1945 -0.3015405 0.2706575)
(0.1945 -0.2915055 0.2706645)
(0.1945 -0.28147 0.2706682)
(0.1945 -0.2714333 0.2706709)
(0.1945 -0.2613956 0.2706727)
(0.1945 -0.2513576 0.2706732)
(0.1945 -0.2413198 0.2706728)
(0.1945 -0.2312822 0.2706719)
(0.1945 -0.2212448 0.270671)
(0.1945 -0.2112073 0.2706703)
(0.1945 -0.2011697 0.2706699)
(0.1945 -0.1911319 0.2706698)
(0.1945 -0.1810941 0.2706697)
(0.1945 -0.1710563 0.2706697)
(0.1945 -0.1610185 0.2706697)
(0.1945 -0.1509807 0.2706697)
(0.1945 -0.1409429 0.2706697)
(0.1945 -0.130905 0.2706698)
(0.1945 -0.1208672 0.2706699)
(0.1945 -0.1108294 0.2706701)
(0.1945 -0.1007915 0.2706702)
(0.1945 -0.09075362 0.2706703)
(0.1945 -0.08071576 0.2706703)
(0.1945 -0.07067789 0.2706704)
(0.1945 -0.06064003 0.2706703)
(0.1945 -0.05060218 0.2706703)
(0.1945 -0.04056434 0.2706702)
(0.1945 -0.0305265 0.2706701)
(0.1945 -0.02048868 0.27067)
(0.1945 -0.01045087 0.2706699)
(0.1945 -0.0004130636 0.2706698)
(0.1945 0.009624746 0.2706698)
(0.1945 0.01966257 0.2706698)
(0.1945 0.0297004 0.2706698)
(0.1945 0.03973823 0.2706697)
(0.1945 0.04977606 0.2706697)
(0.1945 0.05981388 0.2706697)
(0.1945 0.06985169 0.2706697)
(0.1945 0.0798895 0.2706698)
(0.1945 0.08992732 0.2706699)
(0.1945 0.09996515 0.27067)
(0.1945 0.110003 0.2706701)
(0.1945 0.1200408 0.2706702)
(0.1945 0.1300787 0.2706704)
(0.1945 0.1401164 0.2706704)
(0.1945 0.150154 0.2706705)
(0.1945 0.1601914 0.2706707)
(0.1945 0.1702282 0.2706709)
(0.1945 0.180264 0.2706714)
(0.1945 0.1902981 0.2706724)
(0.1945 0.2003292 0.2706742)
(0.1945 0.210355 0.2706773)
(0.1945 0.2203723 0.2706816)
(0.1945 0.2303759 0.2706867)
(0.1945 0.2403575 0.2706899)
(0.1945 0.2503044 0.2706861)
(0.1945 0.2601972 0.2706658)
(0.1945 0.2700073 0.2706162)
(0.1945 0.2796951 0.2705223)
(0.1945 0.2892127 0.270368)
(0.1945 0.2985132 0.2701197)
(0.1945 -0.4046178 0.1590741)
(0.1945 -0.4049114 0.2381435)
(0.1945 -0.4049273 0.2479558)
(0.1945 -0.3516569 0.06734704)
(0.1945 -0.4046211 0.1690226)
(0.1945 -0.4045534 0.1988579)
(0.1945 -0.4046094 0.1789681)
(0.1945 -0.4045568 0.1291514)
(0.1945 -0.3817671 0.0677037)
(0.1945 -0.40459 0.1091132)
(0.1945 -0.4057714 0.0897379)
(0.1945 -0.4036097 0.06912721)
(0.1945 -0.3316251 0.06735069)
(0.1945 -0.4045882 0.1391543)
(0.1945 -0.3920898 0.06802482)
(0.1945 -0.3416486 0.06735129)
(0.1945 -0.3115413 0.06733523)
(0.1945 -0.2914476 0.06732876)
(0.1945 -0.2713594 0.06733111)
(0.1945 -0.2512749 0.06733279)
(0.1945 -0.2311901 0.06733299)
(0.1945 -0.2111049 0.06733177)
(0.1945 -0.1910195 0.06733132)
(0.1945 -0.1709342 0.06733117)
(0.1945 -0.1508489 0.06733146)
(0.1945 -0.1307638 0.06733146)
(0.1945 -0.1106786 0.06733167)
(0.1945 -0.09059349 0.06733199)
(0.1945 -0.07050858 0.06733196)
(0.1945 -0.05042337 0.06733195)
(0.1945 -0.0303386 0.0673315)
(0.1945 -0.01025317 0.06733183)
(0.1945 0.009831696 0.06733122)
(0.1945 0.02991696 0.06733137)
(0.1945 0.05000216 0.06733166)
(0.1945 0.07008724 0.06733163)
(0.1945 0.09017244 0.06733172)
(0.1945 0.1102571 0.06733086)
(0.1945 0.1303425 0.06733164)
(0.1945 0.1504274 0.06733169)
(0.1945 0.1705123 0.06733134)
(0.1945 0.1905968 0.06733023)
(0.1945 0.2106811 0.06732815)
(0.1945 0.2307662 0.06732624)
(0.1945 0.2508519 0.0673269)
(0.1945 0.270937 0.06733005)
(0.1945 0.2910209 0.06733213)
(0.1945 0.3111044 0.06733076)
(0.1945 0.3311879 0.06732663)
(0.1945 0.3512742 0.06732304)
(0.1945 0.3713646 0.06732968)
(0.1945 0.3914553 0.06735037)
(0.1945 0.4115415 0.06738132)
(0.1945 0.4316032 0.06743512)
(0.1945 0.4515895 0.06747943)
(0.1945 0.471481 0.06750795)
(0.1945 0.4916715 0.06786504)
(0.1945 -0.4049673 0.09927254)
(0.1945 -0.4043749 0.2581806)
(0.1945 -0.4045594 0.2087521)
(0.1945 -0.4045408 0.1191374)
(0.1945 0.5048163 0.1722038)
(0.1945 0.5049486 0.1619319)
(0.1945 0.5050264 0.1516402)
(0.1945 0.5050868 0.1413519)
(0.1945 0.5051669 0.1310904)
(0.1945 0.5052938 0.1208752)
(0.1945 0.505434 0.1106847)
(0.1945 0.5052934 0.1003779)
(0.1945 0.5055833 0.09040185)
(0.1945 0.5052091 0.07999159)
(0.1945 -0.4046497 0.2185868)
(0.1945 -0.4045822 0.1889191)
(0.1945 -0.3616642 0.06737605)
(0.1945 -0.4046071 0.1491204)
(0.1945 0.3075682 0.2696608)
(0.1945 0.3164035 0.2686351)
(0.1945 -0.4053918 0.0798466)
(0.1945 -0.2613172 0.06733209)
(0.1945 -0.281403 0.0673287)
(0.1945 -0.301494 0.06733109)
(0.1945 -0.3716886 0.06749789)
(0.1945 -0.3215873 0.06734226)
(0.1945 -0.2412325 0.0673333)
(0.1945 -0.2211474 0.06733319)
(0.1945 -0.2010618 0.06733239)
(0.1945 -0.1809766 0.06733173)
(0.1945 -0.1608918 0.06733083)
(0.1945 -0.1408062 0.06733183)
(0.1945 -0.1207216 0.06733094)
(0.1945 -0.1006363 0.06733123)
(0.1945 -0.08055063 0.06733276)
(0.1945 -0.06046631 0.06733111)
(0.1945 -0.04038069 0.06733254)
(0.1945 -0.02029617 0.06733087)
(0.1945 -0.0002109274 0.06733114)
(0.1945 0.01987448 0.06733156)
(0.1945 0.03995918 0.06733083)
(0.1945 0.06004427 0.06733085)
(0.1945 0.08012937 0.06733082)
(0.1945 0.1002148 0.06733143)
(0.1945 0.1203003 0.06733208)
(0.1945 0.1403854 0.06733261)
(0.1945 0.1604703 0.06733235)
(0.1945 0.1805548 0.06733161)
(0.1945 0.2006392 0.06732994)
(0.1945 0.2207237 0.06732741)
(0.1945 0.2408091 0.06732654)
(0.1945 0.2608947 0.06732885)
(0.1945 0.2809789 0.06733206)
(0.1945 0.3010623 0.06733276)
(0.1945 0.3211456 0.06732955)
(0.1945 0.3412302 0.06732455)
(0.1945 0.3613189 0.06732491)
(0.1945 0.3814105 0.06733942)
(0.1945 0.4014998 0.0673672)
(0.1945 0.4215789 0.06740452)
(0.1945 0.4416086 0.06746105)
(0.1945 0.4615452 0.06748376)
(0.1945 0.481466 0.06757092)
(0.1945 0.3251509 0.2664854)
(0.1945 -0.3952471 0.2617189)
(0.1945 0.3429186 0.2491083)
(0.1945 0.3515428 0.2449618)
(0.1945 0.3604286 0.2408125)
(0.1945 0.3694297 0.2366384)
(0.1945 0.3785168 0.2324253)
(0.1945 0.3876307 0.2281866)
(0.1945 0.3967533 0.2239328)
(0.1945 0.4058786 0.2196692)
(0.1945 0.4150044 0.215399)
(0.1945 0.4241284 0.2111258)
(0.1945 0.4332482 0.2068531)
(0.1945 0.4423601 0.202581)
(0.1945 0.4514564 0.1983048)
(0.1945 0.4605242 0.1940163)
(0.1945 0.4695453 0.1897079)
(0.1945 0.4785005 0.1853745)
(0.1945 0.4873735 0.1810138)
(0.1945 0.4961308 0.17662)
(0.1945 -0.3959195 0.1540977)
(0.1945 -0.2663358 0.07600145)
(0.1945 -0.3759837 0.2619865)
(0.1945 -0.3663567 0.2615163)
(0.1945 -0.3565248 0.2614182)
(0.1945 -0.3465948 0.2615262)
(0.1945 -0.3366141 0.2616951)
(0.1945 -0.3266009 0.2618421)
(0.1945 -0.3165734 0.2619324)
(0.1945 -0.3065442 0.2619733)
(0.1945 -0.2965159 0.2619882)
(0.1945 -0.2864856 0.2619954)
(0.1945 -0.2764517 0.2620014)
(0.1945 -0.2664151 0.2620061)
(0.1945 -0.2563772 0.2620083)
(0.1945 -0.2463395 0.2620081)
(0.1945 -0.2363022 0.2620065)
(0.1945 -0.2262652 0.2620046)
(0.1945 -0.2162281 0.262003)
(0.1945 -0.2061908 0.2620021)
(0.1945 -0.1961532 0.2620017)
(0.1945 -0.1861155 0.2620016)
(0.1945 -0.1760777 0.2620016)
(0.1945 -0.1660399 0.2620015)
(0.1945 -0.156002 0.2620015)
(0.1945 -0.1459642 0.2620016)
(0.1945 -0.1359264 0.2620017)
(0.1945 -0.1258886 0.2620018)
(0.1945 -0.1158508 0.2620021)
(0.1945 -0.1058129 0.2620023)
(0.1945 -0.09577498 0.2620025)
(0.1945 -0.08573708 0.2620026)
(0.1945 -0.0756992 0.2620027)
(0.1945 -0.06566132 0.2620027)
(0.1945 -0.05562345 0.2620027)
(0.1945 -0.04558559 0.2620026)
(0.1945 -0.03554774 0.2620024)
(0.1945 -0.02550992 0.2620022)
(0.1945 -0.01547212 0.262002)
(0.1945 -0.005434333 0.2620018)
(0.1945 0.004603451 0.2620017)
(0.1945 0.01464125 0.2620017)
(0.1945 0.02467907 0.2620017)
(0.1945 0.03471691 0.2620016)
(0.1945 0.04475475 0.2620016)
(0.1945 0.05479257 0.2620016)
(0.1945 0.06483037 0.2620016)
(0.1945 0.07486815 0.2620016)
(0.1945 0.08490595 0.2620017)
(0.1945 0.09494378 0.2620019)
(0.1945 0.1049816 0.2620022)
(0.1945 0.1150195 0.2620024)
(0.1945 0.1250574 0.2620026)
(0.1945 0.1350952 0.2620028)
(0.1945 0.1451329 0.2620029)
(0.1945 0.1551703 0.262003)
(0.1945 0.1652072 0.2620032)
(0.1945 0.1752431 0.2620035)
(0.1945 0.1852773 0.2620042)
(0.1945 0.195308 0.2620057)
(0.1945 0.2053329 0.2620084)
(0.1945 0.2153481 0.2620129)
(0.1945 0.2253472 0.2620187)
(0.1945 0.2353209 0.2620236)
(0.1945 0.2452547 0.2620213)
(0.1945 0.2551272 0.2619994)
(0.1945 0.2649066 0.2619383)
(0.1945 0.2745484 0.2618133)
(0.1945 0.2839927 0.2616028)
(0.1945 0.2931672 0.2612998)
(0.1945 -0.3959354 0.1640577)
(0.1945 -0.3964502 0.2427397)
(0.1945 -0.3854633 0.2626961)
(0.1945 -0.1759532 0.07599997)
(0.1945 -0.3958467 0.1939772)
(0.1945 -0.1357829 0.07599984)
(0.1945 0.02489782 0.07599992)
(0.1945 -0.3266241 0.0760242)
(0.1945 -0.3764831 0.0763907)
(0.1945 -0.386271 0.07670611)
(0.1945 -0.3366566 0.07604142)
(0.1945 0.3187777 0.2596113)
(0.1945 -0.2964698 0.07599441)
(0.1945 -0.3065206 0.07599866)
(0.1945 0.3270694 0.2571284)
(0.1945 -0.246252 0.07600375)
(0.1945 -0.2261668 0.07600421)
(0.1945 -0.2060812 0.07600163)
(0.1945 -0.1859955 0.07600057)
(0.1945 -0.145825 0.07600094)
(0.1945 -0.03535727 0.0760013)
(0.1945 -0.07552669 0.07600241)
(0.1945 -0.105655 0.0760006)
(0.1945 -0.1156981 0.07599968)
(0.1945 -0.08556945 0.07600183)
(0.1945 -0.09561231 0.07600111)
(0.1945 -0.1558678 0.0760003)
(0.1945 -0.04539913 0.07600248)
(0.1945 -0.05544272 0.07600026)
(0.1945 0.436608 0.07620334)
(0.1945 -0.005229293 0.07600102)
(0.1945 0.01485502 0.07599964)
(0.1945 -0.3165733 0.07600716)
(0.1945 -0.3987939 0.085209)
(0.1945 0.05502599 0.0760009)
(0.1945 -0.3959844 0.07703973)
(0.1945 0.07511105 0.07600083)
(0.1945 0.4761741 0.07630363)
(0.1945 0.09519624 0.07600089)
(0.1945 0.1152806 0.07599977)
(0.1945 0.1353662 0.07600125)
(0.1945 0.1554509 0.07600081)
(0.1945 0.1755355 0.07600021)
(0.1945 0.1956194 0.07599782)
(0.1945 0.2157028 0.07599335)
(0.1945 0.2357881 0.07599074)
(0.1945 0.2558741 0.0759938)
(0.1945 0.2759582 0.07600069)
(0.1945 0.2960404 0.07600381)
(0.1945 0.3161228 0.07599886)
(0.1945 0.3362051 0.07598979)
(0.1945 0.356293 0.07598458)
(0.1945 0.3763888 0.07600279)
(0.1945 0.3964823 0.07604503)
(0.1945 0.4165678 0.07610195)
(0.1945 0.4265997 0.07614792)
(0.1945 0.004812977 0.07600053)
(0.1945 0.4565075 0.07628825)
(0.1945 0.4663669 0.0763114)
(0.1945 0.08515273 0.0759994)
(0.1945 -0.3957842 0.2039414)
(0.1945 -0.3466545 0.07603605)
(0.1945 0.4963689 0.1663797)
(0.1945 0.4965062 0.1560924)
(0.1945 0.4965889 0.1457851)
(0.1945 0.4966761 0.1354951)
(0.1945 0.4968225 0.1252694)
(0.1945 0.4970831 0.1151816)
(0.1945 0.4974116 0.1052174)
(0.1945 0.4961462 0.09437388)
(0.1945 0.4985226 0.08538237)
(0.1945 -0.01527255 0.07600023)
(0.1945 -0.3566091 0.07601159)
(0.1945 -0.3958615 0.1340998)
(0.1945 0.06506769 0.07599949)
(0.1945 0.04498262 0.07599955)
(0.1945 -0.3966439 0.2520679)
(0.1945 -0.2763789 0.07599714)
(0.1945 -0.3959283 0.1740168)
(0.1945 0.495754 0.07688345)
(0.1945 -0.2562945 0.0760021)
(0.1945 -0.3960723 0.2235673)
(0.1945 -0.06548499 0.07600083)
(0.1945 0.301998 0.2609149)
(0.1945 0.3104783 0.2604094)
(0.1945 -0.396328 0.2332461)
(0.1945 -0.1960381 0.07600138)
(0.1945 -0.3958994 0.183995)
(0.1945 0.3348027 0.2532135)
(0.1945 -0.2161242 0.07600166)
(0.1945 -0.2864231 0.07599411)
(0.1945 -0.3958976 0.1441179)
(0.1945 -0.3665526 0.07609513)
(0.1945 -0.3958169 0.1035032)
(0.1945 0.03494097 0.07600089)
(0.1945 -0.1257397 0.07600122)
(0.1945 -0.1659106 0.07599998)
(0.1945 -0.2362094 0.07600454)
(0.1945 -0.02531525 0.07599992)
(0.1945 0.4465757 0.07626223)
(0.1945 0.1052385 0.07600041)
(0.1945 0.1253244 0.07600205)
(0.1945 0.1454094 0.07600262)
(0.1945 0.1654941 0.07600199)
(0.1945 0.185578 0.07600023)
(0.1945 0.2056615 0.07599695)
(0.1945 0.2257455 0.07599199)
(0.1945 0.2458311 0.07599127)
(0.1945 0.2659164 0.07599672)
(0.1945 0.2859997 0.07600162)
(0.1945 0.3060819 0.07600133)
(0.1945 0.3261633 0.07599515)
(0.1945 0.346248 0.07598536)
(0.1945 0.3663404 0.07598895)
(0.1945 0.3864357 0.07601967)
(0.1945 0.4065268 0.07607171)
(0.1945 -0.3967767 0.09369138)
(0.1945 -0.3957921 0.1138411)
(0.1945 -0.3958171 0.2138276)
(0.1945 0.4859749 0.07639004)
(0.1945 -0.3958194 0.1240225)
(0.1945 -0.2613109 0.08468011)
(0.1945 -0.387799 0.2286303)
(0.1945 0.2307678 0.08465857)
(0.1945 0.3522996 0.2349541)
(0.1945 0.3612818 0.2308333)
(0.1945 0.3703689 0.2266498)
(0.1945 0.3794633 0.2224386)
(0.1945 0.38857 0.2182016)
(0.1945 0.3976817 0.2139478)
(0.1945 0.4067967 0.2096796)
(0.1945 0.4159106 0.2054011)
(0.1945 0.4250198 0.2011204)
(0.1945 0.4341213 0.1968432)
(0.1945 0.4432091 0.1925671)
(0.1945 0.4522693 0.18828)
(0.1945 0.4612787 0.183967)
(0.1945 0.4702107 0.1796194)
(0.1945 0.4790444 0.1752371)
(0.1945 0.4877411 0.1708156)
(0.1945 -0.3713636 0.08485467)
(0.1945 -0.387167 0.1391069)
(0.1945 -0.07050101 0.08467673)
(0.1945 0.401509 0.08476103)
(0.1945 -0.3615546 0.2522913)
(0.1945 -0.3515729 0.2524279)
(0.1945 -0.3415664 0.2527087)
(0.1945 -0.3315546 0.2529941)
(0.1945 -0.3215366 0.2531825)
(0.1945 -0.3115216 0.2532697)
(0.1945 -0.3015105 0.2532975)
(0.1945 -0.2914937 0.2533099)
(0.1945 -0.2814674 0.253322)
(0.1945 -0.2714339 0.253333)
(0.1945 -0.261397 0.2533397)
(0.1945 -0.2513596 0.2533411)
(0.1945 -0.2413229 0.2533388)
(0.1945 -0.2312867 0.2533351)
(0.1945 -0.2212506 0.2533317)
(0.1945 -0.2112141 0.2533296)
(0.1945 -0.201177 0.2533285)
(0.1945 -0.1911394 0.2533281)
(0.1945 -0.1811017 0.2533281)
(0.1945 -0.1710638 0.2533281)
(0.1945 -0.161026 0.253328)
(0.1945 -0.1509882 0.253328)
(0.1945 -0.1409504 0.2533281)
(0.1945 -0.1309126 0.2533284)
(0.1945 -0.1208747 0.2533287)
(0.1945 -0.1108368 0.2533291)
(0.1945 -0.1007989 0.2533295)
(0.1945 -0.09076093 0.2533298)
(0.1945 -0.080723 0.25333)
(0.1945 -0.07068509 0.2533301)
(0.1945 -0.06064719 0.2533301)
(0.1945 -0.05060931 0.25333)
(0.1945 -0.04057144 0.2533297)
(0.1945 -0.03053361 0.2533294)
(0.1945 -0.02049582 0.2533291)
(0.1945 -0.01045806 0.2533287)
(0.1945 -0.0004203195 0.2533284)
(0.1945 0.009617437 0.2533283)
(0.1945 0.01965523 0.2533283)
(0.1945 0.02969306 0.2533282)
(0.1945 0.03973091 0.2533282)
(0.1945 0.04976875 0.2533281)
(0.1945 0.05980654 0.2533281)
(0.1945 0.06984431 0.2533281)
(0.1945 0.07988207 0.2533282)
(0.1945 0.08991988 0.2533285)
(0.1945 0.09995774 0.2533289)
(0.1945 0.1099957 0.2533293)
(0.1945 0.1200336 0.2533297)
(0.1945 0.1300715 0.25333)
(0.1945 0.1401093 0.2533302)
(0.1945 0.1501469 0.2533303)
(0.1945 0.160184 0.2533304)
(0.1945 0.1702202 0.2533306)
(0.1945 0.1802548 0.2533309)
(0.1945 0.1902861 0.2533317)
(0.1945 0.2003114 0.2533335)
(0.1945 0.2103264 0.2533371)
(0.1945 0.2203241 0.2533428)
(0.1945 0.2302945 0.2533491)
(0.1945 0.2402224 0.2533503)
(0.1945 0.2500861 0.2533332)
(0.1945 0.2598554 0.253274)
(0.1945 0.2694903 0.2531378)
(0.1945 0.2789407 0.2528853)
(0.1945 0.2881457 0.2524959)
(0.1945 -0.3872286 0.1591007)
(0.1945 -0.1910128 0.08467431)
(0.1945 0.08013757 0.08467605)
(0.1945 -0.2010551 0.08467638)
(0.1945 -0.1709262 0.08467573)
(0.1945 -0.2211421 0.08467817)
(0.1945 -0.0002033232 0.08467557)
(0.1945 -0.301493 0.08466105)
(0.1945 -0.3811584 0.08563098)
(0.1945 0.4515241 0.08515249)
(0.1945 -0.3872298 0.1790383)
(0.1945 0.3311777 0.08466239)
(0.1945 -0.3316772 0.08472222)
(0.1945 0.4415968 0.0850695)
(0.1945 -0.1207133 0.08467601)
(0.1945 -0.2110973 0.0846788)
(0.1945 0.3210794 0.2517705)
(0.1945 -0.3872019 0.1491256)
(0.1945 -0.2311839 0.08468329)
(0.1945 -0.3871837 0.1890664)
(0.1945 -0.1407997 0.08467393)
(0.1945 -0.2412275 0.08468258)
(0.1945 0.3275114 0.2474584)
(0.1945 -0.08054221 0.08467836)
(0.1945 -0.0905858 0.08467676)
(0.1945 -0.1508407 0.08467619)
(0.1945 -0.3879107 0.2382041)
(0.1945 -0.04037214 0.0846786)
(0.1945 -0.05041587 0.08467696)
(0.1945 -0.1006282 0.08467666)