/*--------------------------------*- C++ -*----------------------------------*\
| =========                 |                                                 |
| \\      /  F ield         | OpenFOAM: The Open Source CFD Toolbox           |
|  \\    /   O peration     | Version:  7                                     |
|   \\  /    A nd           | Web:      www.OpenFOAM.com                      |
|    \\/     M anipulation  |                                                 |
\*---------------------------------------------------------------------------*/
FoamFile
{
    version     2.0;
    format      ascii;
    class       dictionary;
    object      topoSetDict;
}
// * * * * * * * * * * * * * * * * * * * * * * * * * * * * * * * * * * * * * //

actions
(
    {
        name    c0;
        type    cellSet;
        action  new;
        source  boxToCell;
        sourceInfo
        {
            box (-5 0 -0.5) (5 8 5);
        }
    }

    {
        name    c1;
        type    cellSet;
        action  new;
        source  cellToCell;
        sourceInfo
        {
            set c0;
        }
    }

    {
        name    c1;
        type    cellSet;
        action  invert;
    }

//////////////////////////////////////////////////////////////////

    {
        name    c10;
        type    cellSet;
        action  new;
        source  boxToCell;
        sourceInfo
        {
            box (-5 8 -0.5) (5 12 5);
        }
    }

    {
        name    c11;
        type    cellSet;
        action  new;
        source  cellToCell;
        sourceInfo
        {
            set c0;
        }
    }

    {
        name    c11;
        type    cellSet;
        action  invert;
    }
);

// ************************************************************************* //
