/*--------------------------------*- C++ -*----------------------------------*\
  =========                 |
  \\      /  F ield         | OpenFOAM: The Open Source CFD Toolbox
   \\    /   O peration     | Website:  https://openfoam.org
    \\  /    A nd           | Version:  8
     \\/     M anipulation  |
\*---------------------------------------------------------------------------*/
FoamFile
{
    version     2.0;
    format      ascii;
    class       dictionary;
    object      blockMeshDict;
}
// * * * * * * * * * * * * * * * * * * * * * * * * * * * * * * * * * * * * * //

convertToMeters 1;

xmin  -0.2;
xmax  0.6;
ymin -0.6;
ymax  1.2;
zmin  -0.6;
zmax  0.6;

xcells 40;
ycells 120;
zcells 100;

dx 0.02;
dy 0.015;
dz 0.012;

lx #calc "$xmax - $xmin";
ly #calc "$ymax - $ymin";
lz #calc "$zmax - $zmin";

xcells #calc "abs($lx / $dx)";
ycells #calc "abs($ly / $dy)";
zcells #calc "abs($lz / $dz)";

vertices        
(
    ($xmin  $ymin  $zmin)
    ($xmax  $ymin  $zmin)
    ($xmax  $ymax  $zmin)
    ($xmin  $ymax  $zmin)
    ($xmin  $ymin  $zmax)
    ($xmax  $ymin  $zmax)
    ($xmax  $ymax  $zmax)
    ($xmin  $ymax  $zmax)
);

blocks          
(
    hex (0 1 2 3 4 5 6 7) ($xcells $ycells $zcells) simpleGrading (1 1 1)
);

edges           
(
);

patches         
(
    patch minX
    (
        (0 4 7 3)
    )
    patch maxX
    (
        (2 6 5 1)
    )
    patch minY
    (
        (1 5 4 0)
    )
    patch maxY 
    (
        (3 7 6 2)
    )
    patch minZ
    (
        (0 3 2 1)
    )
    patch maxZ
    (
        (4 5 6 7)
    )
);

mergePatchPairs 
(
);

// ************************************************************************* //
