/*--------------------------------*- C++ -*----------------------------------*\
  =========                 |
  \\      /  F ield         | OpenFOAM: The Open Source CFD Toolbox
   \\    /   O peration     | Website:  https://openfoam.org
    \\  /    A nd           | Version:  7
     \\/     M anipulation  |
\*---------------------------------------------------------------------------*/
FoamFile
{
    version     2.0;
    format      ascii;
    class       dictionary;
    location    "system";
    object      fvSchemes;
}
// * * * * * * * * * * * * * * * * * * * * * * * * * * * * * * * * * * * * * //

ddtSchemes
{
    default         Euler;
}

gradSchemes
{
    default         Gauss linear;
}

//Erste Ordnung
divSchemes
{
div(phi,U) Gauss upwind;
div(phi,omega) Gauss upwind;
div(phi,k) Gauss upwind;
div((nuEff*dev2(T(grad(U))))) Gauss linear;
}
/*
//Zweite Ordnung
divSchemes
{
div(phi,U) Gauss linearUpwind grad(U);
div(phi,omega) Gauss linearUpwind default;
div(phi,k) Gauss linearUpwind default;
div((nuEff*dev2(T(grad(U))))) Gauss linear;
}
*/
laplacianSchemes
{
    default         Gauss linear corrected;
}

interpolationSchemes
{
    default         linear;
}

snGradSchemes
{
    default         corrected;
}

wallDist
{
    method meshWave;
}


// ************************************************************************* //
