/*--------------------------------*- C++ -*----------------------------------*\
  =========                 |
  \\      /  F ield         | OpenFOAM: The Open Source CFD Toolbox
   \\    /   O peration     | Website:  https://openfoam.org
    \\  /    A nd           | Version:  7
     \\/     M anipulation  |
\*---------------------------------------------------------------------------*/
FoamFile
{
    version     2.0;
    format      ascii;
    class       dictionary;
    location    "system";
    object      fvSchemes;
}
// * * * * * * * * * * * * * * * * * * * * * * * * * * * * * * * * * * * * * //

ddtSchemes
{
    default         Euler;
}

gradSchemes
{
    default         cellLimited Gauss linear 1;
    grad(U)	    cellLimited Gauss linear 1;
}

//Erste Ordnung

divSchemes
{
default         		none;
div(phi,U) 			Gauss upwind;
div(phi,omega) 			Gauss upwind;
div(phi,epsilon)		Gauss upwind;
div(phi,k) 			Gauss upwind;
div((nuEff*dev2(T(grad(U))))) 	Gauss linear;
}
/*
//Zweite Ordnung
divSchemes
{
default         		none;
div(phi,U)  			Gauss linearUpwind grad(U);
div(phi,omega)  		Gauss linearUpwind default;
div(phi,epsilon)		Gauss linearUpwind default;
div(phi,k)  			Gauss linearUpwind default;
div((nuEff*dev2(T(grad(U))))) 	Gauss linear;
}

//Zweite Ordnung more accurate
divSchemes
{
default         		none;
div(phi,U)  			Gauss linear;
div(phi,omega)  		Gauss linear;
div(phi,epsilon)		Gauss linear;
div(phi,k)  			Gauss linear;
div((nuEff*dev2(T(grad(U))))) 	Gauss linear;
}
*/


laplacianSchemes
{
    default         Gauss linear corrected;
}

interpolationSchemes
{
    default         linear;
}

snGradSchemes
{
    default         corrected;
}

wallDist
{
    method meshWave;
}


// ************************************************************************* //
