/*--------------------------------*- C++ -*----------------------------------*\
| =========                 |                                                 |
| \\      /  F ield         | OpenFOAM: The Open Source CFD Toolbox           |
|  \\    /   O peration     | Version:  7                                     |
|   \\  /    A nd           | Web:      www.OpenFOAM.com                      |
|    \\/     M anipulation  |                                                 |
\*---------------------------------------------------------------------------*/
FoamFile
{
    version     2.0;
    format      ascii;
    class       dictionary;
    object      dynamicMeshDict;
}
// * * * * * * * * * * * * * * * * * * * * * * * * * * * * * * * * * * * * * //

dynamicFvMesh       dynamicOversetFvMesh;
motionSolverLibs ( "libfvMotionSolvers.so" );

motionSolver          multiSolidBodyMotionSolver;




       
movingZone1
{
       solidBodyMotionFunction linearMotion;
       linearMotionCoeffs
       {
           velocity        (0 -1 0);
       }
}

movingZone2
{
       solidBodyMotionFunction linearMotion;
       linearMotionCoeffs
       {
           velocity        (0 -1 0);
       }
}    
      




// ************************************************************************* //
